 
  Title of simulation: 
 calcite.in:  kinetic calcite dissolution problem for geochemistry code v
 
 
  --> Running in GIMRT mode (global implicit reaction and transport) 
 
  Extended Debye-Huckel activity model
 
   ---> Using database: calcite.dbs                                                                                         
  Temperature parameters not found
  Using defaults
 
  Number of components:                          3
 
  Number of secondary species:                   6
 
  Number of kinetic minerals:                    1
 
  No surface complexation block found
 
     --> Calling database subroutine
 
 
  Number of reactions:                              7
  Number of complexes:                              6
  Number of minerals:                               1
  Number of gases:                                  0
 
     --> Finished reading database
  No ion exchange block found
  Fixing porosity at 0.5000
  No update of porosity
 
  Current density module: temperature
 
 
  ---> READING GEOCHEMICAL CONDITIONS  
 
 
  ---> STARTING SPECIATION OF GEOCHEMICAL CONDITIONS  
 
 
                SPECIATION OF 
      INITIAL AND BOUNDARY CONDITIONS 
           SUCCESSFULLY COMPLETED
 
  No aqueous kinetics block found
  Retardation parameters not found
  Assuming NO retardation (Kd = 0) 
  No discretization in Z direction
  Setting nz = 1
 
 
   NZ =            1
 
 
  Number of heterogeneities =            1
 
 
  No boundary conditions found
 
 
  Cannot interpret string in boundary read
 initial_condition                                                              
                                                      
  Ignoring this line
 
  Output block found
 
  Timestepping on--output files written
   250.000000000000     
 
 
 Parameters for this run:
 
 --> Porosity set by "fix_porosity" or "set_porosity" keywords
 ----> No update of porosity
 --> Extended Debye-Huckel activity model used
 --> Activity coefficients only computed
     at beginning of time step 
 
   Running in batch mode
 
  Reading MODFLOW block
  Reading flow block
 
  No flow block found
  Assuming Darcy fluxes = 0
 
 
   Constant velocities have been specified
 
   X Darcy velocity =   0.000000000000000E+000
   Y Darcy velocity =   0.000000000000000E+000
   Z Darcy velocity =   0.000000000000000E+000
 
 
   Constant gas velocities have been specified
 
   X gas flux  =   0.000000000000000E+000
   Y gas flux  =   0.000000000000000E+000
   Z gas flux  =   0.000000000000000E+000
 
 
 
 
  No transport block found
  Assuming dispersivity and diffusion = 0
 
 
   Using constant diffusion coefficient
  Diffusion coefficient (m**2/yr) =       0.0000E+00
 
 
  Longitudinal dispersivity (m) =     0.0000E+00
  Transverse dispersivity (m) =       0.0000E+00
 
 
         INITIALIZATION COMPLETED 
          STARTING TIMESTEPPING 
 
 
  ---> RUNNING IN:  GLOBAL IMPLICIT REACTION AND TRANSPORT (GIMRT) MODE
 
 
  Grid cells in X direction (NX):            1
  Grid cells in Y direction (NY):            1
  Grid cells in Z direction (NZ):            1
 
 
  Initial mass in system =   2.752118026510348E-009
 Time step #            1
  Time (secs) =  5.000E-01  Delt (secs) = 5.000E-01
  Number of Newton iterations =  3
  Maximum change in master variable =   4.15E-03   at grid pts    1    1    1
 
 Time step #            2
  Time (secs) =  1.000E+00  Delt (secs) = 5.000E-01
  Number of Newton iterations =  3
  Maximum change in master variable =   4.06E-03   at grid pts    1    1    1
 
 Time step #            3
  Time (secs) =  1.500E+00  Delt (secs) = 5.000E-01
  Number of Newton iterations =  3
  Maximum change in master variable =   3.99E-03   at grid pts    1    1    1
 
 Time step #            4
  Time (secs) =  2.000E+00  Delt (secs) = 5.000E-01
  Number of Newton iterations =  3
  Maximum change in master variable =   3.93E-03   at grid pts    1    1    1
 
 Time step #            5
  Time (secs) =  2.500E+00  Delt (secs) = 5.000E-01
  Number of Newton iterations =  3
  Maximum change in master variable =   3.87E-03   at grid pts    1    1    1
 
 Time step #            6
  Time (secs) =  3.000E+00  Delt (secs) = 5.000E-01
  Number of Newton iterations =  3
  Maximum change in master variable =   3.80E-03   at grid pts    1    1    1
 
 Time step #            7
  Time (secs) =  3.500E+00  Delt (secs) = 5.000E-01
  Number of Newton iterations =  3
  Maximum change in master variable =   3.74E-03   at grid pts    1    1    1
 
 Time step #            8
  Time (secs) =  4.000E+00  Delt (secs) = 5.000E-01
  Number of Newton iterations =  3
  Maximum change in master variable =   3.68E-03   at grid pts    1    1    1
 
 Time step #            9
  Time (secs) =  4.500E+00  Delt (secs) = 5.000E-01
  Number of Newton iterations =  3
  Maximum change in master variable =   3.62E-03   at grid pts    1    1    1
 
 Time step #           10
  Time (secs) =  5.000E+00  Delt (secs) = 5.000E-01
  Number of Newton iterations =  3
  Maximum change in master variable =   3.57E-03   at grid pts    1    1    1
 
 Time step #           11
  Time (secs) =  5.500E+00  Delt (secs) = 5.000E-01
  Number of Newton iterations =  3
  Maximum change in master variable =   3.51E-03   at grid pts    1    1    1
 
 Time step #           12
  Time (secs) =  6.000E+00  Delt (secs) = 5.000E-01
  Number of Newton iterations =  3
  Maximum change in master variable =   3.45E-03   at grid pts    1    1    1
 
 Time step #           13
  Time (secs) =  6.500E+00  Delt (secs) = 5.000E-01
  Number of Newton iterations =  3
  Maximum change in master variable =   3.40E-03   at grid pts    1    1    1
 
 Time step #           14
  Time (secs) =  7.000E+00  Delt (secs) = 5.000E-01
  Number of Newton iterations =  3
  Maximum change in master variable =   3.34E-03   at grid pts    1    1    1
 
 Time step #           15
  Time (secs) =  7.500E+00  Delt (secs) = 5.000E-01
  Number of Newton iterations =  3
  Maximum change in master variable =   3.29E-03   at grid pts    1    1    1
 
 Time step #           16
  Time (secs) =  8.000E+00  Delt (secs) = 5.000E-01
  Number of Newton iterations =  3
  Maximum change in master variable =   3.24E-03   at grid pts    1    1    1
 
 Time step #           17
  Time (secs) =  8.500E+00  Delt (secs) = 5.000E-01
  Number of Newton iterations =  3
  Maximum change in master variable =   3.19E-03   at grid pts    1    1    1
 
 Time step #           18
  Time (secs) =  9.000E+00  Delt (secs) = 5.000E-01
  Number of Newton iterations =  3
  Maximum change in master variable =   3.14E-03   at grid pts    1    1    1
 
 Time step #           19
  Time (secs) =  9.500E+00  Delt (secs) = 5.000E-01
  Number of Newton iterations =  3
  Maximum change in master variable =   3.09E-03   at grid pts    1    1    1
 
 Time step #           20
  Time (secs) =  1.000E+01  Delt (secs) = 5.000E-01
  Number of Newton iterations =  3
  Maximum change in master variable =   3.04E-03   at grid pts    1    1    1
 
 Time step #           21
  Time (secs) =  1.050E+01  Delt (secs) = 5.000E-01
  Number of Newton iterations =  3
  Maximum change in master variable =   2.99E-03   at grid pts    1    1    1
 
 Time step #           22
  Time (secs) =  1.100E+01  Delt (secs) = 5.000E-01
  Number of Newton iterations =  3
  Maximum change in master variable =   2.94E-03   at grid pts    1    1    1
 
 Time step #           23
  Time (secs) =  1.150E+01  Delt (secs) = 5.000E-01
  Number of Newton iterations =  3
  Maximum change in master variable =   2.90E-03   at grid pts    1    1    1
 
 Time step #           24
  Time (secs) =  1.200E+01  Delt (secs) = 5.000E-01
  Number of Newton iterations =  3
  Maximum change in master variable =   2.85E-03   at grid pts    1    1    1
 
 Time step #           25
  Time (secs) =  1.250E+01  Delt (secs) = 5.000E-01
  Number of Newton iterations =  3
  Maximum change in master variable =   2.81E-03   at grid pts    1    1    1
 
 Time step #           26
  Time (secs) =  1.300E+01  Delt (secs) = 5.000E-01
  Number of Newton iterations =  3
  Maximum change in master variable =   2.76E-03   at grid pts    1    1    1
 
 Time step #           27
  Time (secs) =  1.350E+01  Delt (secs) = 5.000E-01
  Number of Newton iterations =  3
  Maximum change in master variable =   2.72E-03   at grid pts    1    1    1
 
 Time step #           28
  Time (secs) =  1.400E+01  Delt (secs) = 5.000E-01
  Number of Newton iterations =  3
  Maximum change in master variable =   2.68E-03   at grid pts    1    1    1
 
 Time step #           29
  Time (secs) =  1.450E+01  Delt (secs) = 5.000E-01
  Number of Newton iterations =  3
  Maximum change in master variable =   2.64E-03   at grid pts    1    1    1
 
 Time step #           30
  Time (secs) =  1.500E+01  Delt (secs) = 5.000E-01
  Number of Newton iterations =  3
  Maximum change in master variable =   2.59E-03   at grid pts    1    1    1
 
 Time step #           31
  Time (secs) =  1.550E+01  Delt (secs) = 5.000E-01
  Number of Newton iterations =  3
  Maximum change in master variable =   2.55E-03   at grid pts    1    1    1
 
 Time step #           32
  Time (secs) =  1.600E+01  Delt (secs) = 5.000E-01
  Number of Newton iterations =  3
  Maximum change in master variable =   2.51E-03   at grid pts    1    1    1
 
 Time step #           33
  Time (secs) =  1.650E+01  Delt (secs) = 5.000E-01
  Number of Newton iterations =  3
  Maximum change in master variable =   2.48E-03   at grid pts    1    1    1
 
 Time step #           34
  Time (secs) =  1.700E+01  Delt (secs) = 5.000E-01
  Number of Newton iterations =  3
  Maximum change in master variable =   2.44E-03   at grid pts    1    1    1
 
 Time step #           35
  Time (secs) =  1.750E+01  Delt (secs) = 5.000E-01
  Number of Newton iterations =  3
  Maximum change in master variable =   2.40E-03   at grid pts    1    1    1
 
 Time step #           36
  Time (secs) =  1.800E+01  Delt (secs) = 5.000E-01
  Number of Newton iterations =  3
  Maximum change in master variable =   2.36E-03   at grid pts    1    1    1
 
 Time step #           37
  Time (secs) =  1.850E+01  Delt (secs) = 5.000E-01
  Number of Newton iterations =  3
  Maximum change in master variable =   2.33E-03   at grid pts    1    1    1
 
 Time step #           38
  Time (secs) =  1.900E+01  Delt (secs) = 5.000E-01
  Number of Newton iterations =  3
  Maximum change in master variable =   2.29E-03   at grid pts    1    1    1
 
 Time step #           39
  Time (secs) =  1.950E+01  Delt (secs) = 5.000E-01
  Number of Newton iterations =  3
  Maximum change in master variable =   2.26E-03   at grid pts    1    1    1
 
 Time step #           40
  Time (secs) =  2.000E+01  Delt (secs) = 5.000E-01
  Number of Newton iterations =  3
  Maximum change in master variable =   2.22E-03   at grid pts    1    1    1
 
 Time step #           41
  Time (secs) =  2.050E+01  Delt (secs) = 5.000E-01
  Number of Newton iterations =  3
  Maximum change in master variable =   2.19E-03   at grid pts    1    1    1
 
 Time step #           42
  Time (secs) =  2.100E+01  Delt (secs) = 5.000E-01
  Number of Newton iterations =  3
  Maximum change in master variable =   2.15E-03   at grid pts    1    1    1
 
 Time step #           43
  Time (secs) =  2.150E+01  Delt (secs) = 5.000E-01
  Number of Newton iterations =  3
  Maximum change in master variable =   2.12E-03   at grid pts    1    1    1
 
 Time step #           44
  Time (secs) =  2.200E+01  Delt (secs) = 5.000E-01
  Number of Newton iterations =  3
  Maximum change in master variable =   2.09E-03   at grid pts    1    1    1
 
 Time step #           45
  Time (secs) =  2.250E+01  Delt (secs) = 5.000E-01
  Number of Newton iterations =  3
  Maximum change in master variable =   2.06E-03   at grid pts    1    1    1
 
 Time step #           46
  Time (secs) =  2.300E+01  Delt (secs) = 5.000E-01
  Number of Newton iterations =  3
  Maximum change in master variable =   2.03E-03   at grid pts    1    1    1
 
 Time step #           47
  Time (secs) =  2.350E+01  Delt (secs) = 5.000E-01
  Number of Newton iterations =  3
  Maximum change in master variable =   1.99E-03   at grid pts    1    1    1
 
 Time step #           48
  Time (secs) =  2.400E+01  Delt (secs) = 5.000E-01
  Number of Newton iterations =  3
  Maximum change in master variable =   1.96E-03   at grid pts    1    1    1
 
 Time step #           49
  Time (secs) =  2.450E+01  Delt (secs) = 5.000E-01
  Number of Newton iterations =  3
  Maximum change in master variable =   1.94E-03   at grid pts    1    1    1
 
 Time step #           50
  Time (secs) =  2.500E+01  Delt (secs) = 5.000E-01
  Number of Newton iterations =  3
  Maximum change in master variable =   1.91E-03   at grid pts    1    1    1
 
 Time step #           51
  Time (secs) =  2.550E+01  Delt (secs) = 5.000E-01
  Number of Newton iterations =  3
  Maximum change in master variable =   1.88E-03   at grid pts    1    1    1
 
 Time step #           52
  Time (secs) =  2.600E+01  Delt (secs) = 5.000E-01
  Number of Newton iterations =  3
  Maximum change in master variable =   1.85E-03   at grid pts    1    1    1
 
 Time step #           53
  Time (secs) =  2.650E+01  Delt (secs) = 5.000E-01
  Number of Newton iterations =  3
  Maximum change in master variable =   1.82E-03   at grid pts    1    1    1
 
 Time step #           54
  Time (secs) =  2.700E+01  Delt (secs) = 5.000E-01
  Number of Newton iterations =  3
  Maximum change in master variable =   1.79E-03   at grid pts    1    1    1
 
 Time step #           55
  Time (secs) =  2.750E+01  Delt (secs) = 5.000E-01
  Number of Newton iterations =  3
  Maximum change in master variable =   1.77E-03   at grid pts    1    1    1
 
 Time step #           56
  Time (secs) =  2.800E+01  Delt (secs) = 5.000E-01
  Number of Newton iterations =  3
  Maximum change in master variable =   1.74E-03   at grid pts    1    1    1
 
 Time step #           57
  Time (secs) =  2.850E+01  Delt (secs) = 5.000E-01
  Number of Newton iterations =  3
  Maximum change in master variable =   1.71E-03   at grid pts    1    1    1
 
 Time step #           58
  Time (secs) =  2.900E+01  Delt (secs) = 5.000E-01
  Number of Newton iterations =  3
  Maximum change in master variable =   1.69E-03   at grid pts    1    1    1
 
 Time step #           59
  Time (secs) =  2.950E+01  Delt (secs) = 5.000E-01
  Number of Newton iterations =  3
  Maximum change in master variable =   1.66E-03   at grid pts    1    1    1
 
 Time step #           60
  Time (secs) =  3.000E+01  Delt (secs) = 5.000E-01
  Number of Newton iterations =  3
  Maximum change in master variable =   1.64E-03   at grid pts    1    1    1
 
 Time step #           61
  Time (secs) =  3.050E+01  Delt (secs) = 5.000E-01
  Number of Newton iterations =  3
  Maximum change in master variable =   1.62E-03   at grid pts    1    1    1
 
 Time step #           62
  Time (secs) =  3.100E+01  Delt (secs) = 5.000E-01
  Number of Newton iterations =  3
  Maximum change in master variable =   1.59E-03   at grid pts    1    1    1
 
 Time step #           63
  Time (secs) =  3.150E+01  Delt (secs) = 5.000E-01
  Number of Newton iterations =  3
  Maximum change in master variable =   1.57E-03   at grid pts    1    1    1
 
 Time step #           64
  Time (secs) =  3.200E+01  Delt (secs) = 5.000E-01
  Number of Newton iterations =  3
  Maximum change in master variable =   1.54E-03   at grid pts    1    1    1
 
 Time step #           65
  Time (secs) =  3.250E+01  Delt (secs) = 5.000E-01
  Number of Newton iterations =  3
  Maximum change in master variable =   1.52E-03   at grid pts    1    1    1
 
 Time step #           66
  Time (secs) =  3.300E+01  Delt (secs) = 5.000E-01
  Number of Newton iterations =  3
  Maximum change in master variable =   1.50E-03   at grid pts    1    1    1
 
 Time step #           67
  Time (secs) =  3.350E+01  Delt (secs) = 5.000E-01
  Number of Newton iterations =  3
  Maximum change in master variable =   1.48E-03   at grid pts    1    1    1
 
 Time step #           68
  Time (secs) =  3.400E+01  Delt (secs) = 5.000E-01
  Number of Newton iterations =  3
  Maximum change in master variable =   1.46E-03   at grid pts    1    1    1
 
 Time step #           69
  Time (secs) =  3.450E+01  Delt (secs) = 5.000E-01
  Number of Newton iterations =  3
  Maximum change in master variable =   1.43E-03   at grid pts    1    1    1
 
 Time step #           70
  Time (secs) =  3.500E+01  Delt (secs) = 5.000E-01
  Number of Newton iterations =  3
  Maximum change in master variable =   1.41E-03   at grid pts    1    1    1
 
 Time step #           71
  Time (secs) =  3.550E+01  Delt (secs) = 5.000E-01
  Number of Newton iterations =  3
  Maximum change in master variable =   1.39E-03   at grid pts    1    1    1
 
 Time step #           72
  Time (secs) =  3.600E+01  Delt (secs) = 5.000E-01
  Number of Newton iterations =  3
  Maximum change in master variable =   1.37E-03   at grid pts    1    1    1
 
 Time step #           73
  Time (secs) =  3.650E+01  Delt (secs) = 5.000E-01
  Number of Newton iterations =  3
  Maximum change in master variable =   1.35E-03   at grid pts    1    1    1
 
 Time step #           74
  Time (secs) =  3.700E+01  Delt (secs) = 5.000E-01
  Number of Newton iterations =  3
  Maximum change in master variable =   1.33E-03   at grid pts    1    1    1
 
 Time step #           75
  Time (secs) =  3.750E+01  Delt (secs) = 5.000E-01
  Number of Newton iterations =  3
  Maximum change in master variable =   1.31E-03   at grid pts    1    1    1
 
 Time step #           76
  Time (secs) =  3.800E+01  Delt (secs) = 5.000E-01
  Number of Newton iterations =  3
  Maximum change in master variable =   1.29E-03   at grid pts    1    1    1
 
 Time step #           77
  Time (secs) =  3.850E+01  Delt (secs) = 5.000E-01
  Number of Newton iterations =  3
  Maximum change in master variable =   1.28E-03   at grid pts    1    1    1
 
 Time step #           78
  Time (secs) =  3.900E+01  Delt (secs) = 5.000E-01
  Number of Newton iterations =  3
  Maximum change in master variable =   1.26E-03   at grid pts    1    1    1
 
 Time step #           79
  Time (secs) =  3.950E+01  Delt (secs) = 5.000E-01
  Number of Newton iterations =  3
  Maximum change in master variable =   1.24E-03   at grid pts    1    1    1
 
 Time step #           80
  Time (secs) =  4.000E+01  Delt (secs) = 5.000E-01
  Number of Newton iterations =  3
  Maximum change in master variable =   1.22E-03   at grid pts    1    1    1
 
 Time step #           81
  Time (secs) =  4.050E+01  Delt (secs) = 5.000E-01
  Number of Newton iterations =  3
  Maximum change in master variable =   1.20E-03   at grid pts    1    1    1
 
 Time step #           82
  Time (secs) =  4.100E+01  Delt (secs) = 5.000E-01
  Number of Newton iterations =  3
  Maximum change in master variable =   1.19E-03   at grid pts    1    1    1
 
 Time step #           83
  Time (secs) =  4.150E+01  Delt (secs) = 5.000E-01
  Number of Newton iterations =  3
  Maximum change in master variable =   1.17E-03   at grid pts    1    1    1
 
 Time step #           84
  Time (secs) =  4.200E+01  Delt (secs) = 5.000E-01
  Number of Newton iterations =  3
  Maximum change in master variable =   1.15E-03   at grid pts    1    1    1
 
 Time step #           85
  Time (secs) =  4.250E+01  Delt (secs) = 5.000E-01
  Number of Newton iterations =  3
  Maximum change in master variable =   1.14E-03   at grid pts    1    1    1
 
 Time step #           86
  Time (secs) =  4.300E+01  Delt (secs) = 5.000E-01
  Number of Newton iterations =  3
  Maximum change in master variable =   1.12E-03   at grid pts    1    1    1
 
 Time step #           87
  Time (secs) =  4.350E+01  Delt (secs) = 5.000E-01
  Number of Newton iterations =  3
  Maximum change in master variable =   1.10E-03   at grid pts    1    1    1
 
 Time step #           88
  Time (secs) =  4.400E+01  Delt (secs) = 5.000E-01
  Number of Newton iterations =  3
  Maximum change in master variable =   1.09E-03   at grid pts    1    1    1
 
 Time step #           89
  Time (secs) =  4.450E+01  Delt (secs) = 5.000E-01
  Number of Newton iterations =  3
  Maximum change in master variable =   1.07E-03   at grid pts    1    1    1
 
 Time step #           90
  Time (secs) =  4.500E+01  Delt (secs) = 5.000E-01
  Number of Newton iterations =  3
  Maximum change in master variable =   1.06E-03   at grid pts    1    1    1
 
 Time step #           91
  Time (secs) =  4.550E+01  Delt (secs) = 5.000E-01
  Number of Newton iterations =  3
  Maximum change in master variable =   1.04E-03   at grid pts    1    1    1
 
 Time step #           92
  Time (secs) =  4.600E+01  Delt (secs) = 5.000E-01
  Number of Newton iterations =  3
  Maximum change in master variable =   1.03E-03   at grid pts    1    1    1
 
 Time step #           93
  Time (secs) =  4.650E+01  Delt (secs) = 5.000E-01
  Number of Newton iterations =  3
  Maximum change in master variable =   1.01E-03   at grid pts    1    1    1
 
 Time step #           94
  Time (secs) =  4.700E+01  Delt (secs) = 5.000E-01
  Number of Newton iterations =  3
  Maximum change in master variable =   9.98E-04   at grid pts    1    1    1
 
 Time step #           95
  Time (secs) =  4.750E+01  Delt (secs) = 5.000E-01
  Number of Newton iterations =  3
  Maximum change in master variable =   9.84E-04   at grid pts    1    1    1
 
 Time step #           96
  Time (secs) =  4.800E+01  Delt (secs) = 5.000E-01
  Number of Newton iterations =  3
  Maximum change in master variable =   9.70E-04   at grid pts    1    1    1
 
 Time step #           97
  Time (secs) =  4.850E+01  Delt (secs) = 5.000E-01
  Number of Newton iterations =  3
  Maximum change in master variable =   9.57E-04   at grid pts    1    1    1
 
 Time step #           98
  Time (secs) =  4.900E+01  Delt (secs) = 5.000E-01
  Number of Newton iterations =  3
  Maximum change in master variable =   9.43E-04   at grid pts    1    1    1
 
 Time step #           99
  Time (secs) =  4.950E+01  Delt (secs) = 5.000E-01
  Number of Newton iterations =  3
  Maximum change in master variable =   9.30E-04   at grid pts    1    1    1
 
 Time step #          100
  Time (secs) =  5.000E+01  Delt (secs) = 5.000E-01
  Number of Newton iterations =  3
  Maximum change in master variable =   9.17E-04   at grid pts    1    1    1
 
 Time step #          101
  Time (secs) =  5.050E+01  Delt (secs) = 5.000E-01
  Number of Newton iterations =  3
  Maximum change in master variable =   9.04E-04   at grid pts    1    1    1
 
 Time step #          102
  Time (secs) =  5.100E+01  Delt (secs) = 5.000E-01
  Number of Newton iterations =  3
  Maximum change in master variable =   8.91E-04   at grid pts    1    1    1
 
 Time step #          103
  Time (secs) =  5.150E+01  Delt (secs) = 5.000E-01
  Number of Newton iterations =  3
  Maximum change in master variable =   8.78E-04   at grid pts    1    1    1
 
 Time step #          104
  Time (secs) =  5.200E+01  Delt (secs) = 5.000E-01
  Number of Newton iterations =  3
  Maximum change in master variable =   8.66E-04   at grid pts    1    1    1
 
 Time step #          105
  Time (secs) =  5.250E+01  Delt (secs) = 5.000E-01
  Number of Newton iterations =  3
  Maximum change in master variable =   8.54E-04   at grid pts    1    1    1
 
 Time step #          106
  Time (secs) =  5.300E+01  Delt (secs) = 5.000E-01
  Number of Newton iterations =  3
  Maximum change in master variable =   8.42E-04   at grid pts    1    1    1
 
 Time step #          107
  Time (secs) =  5.350E+01  Delt (secs) = 5.000E-01
  Number of Newton iterations =  3
  Maximum change in master variable =   8.30E-04   at grid pts    1    1    1
 
 Time step #          108
  Time (secs) =  5.400E+01  Delt (secs) = 5.000E-01
  Number of Newton iterations =  3
  Maximum change in master variable =   8.18E-04   at grid pts    1    1    1
 
 Time step #          109
  Time (secs) =  5.450E+01  Delt (secs) = 5.000E-01
  Number of Newton iterations =  3
  Maximum change in master variable =   8.07E-04   at grid pts    1    1    1
 
 Time step #          110
  Time (secs) =  5.500E+01  Delt (secs) = 5.000E-01
  Number of Newton iterations =  3
  Maximum change in master variable =   7.96E-04   at grid pts    1    1    1
 
 Time step #          111
  Time (secs) =  5.550E+01  Delt (secs) = 5.000E-01
  Number of Newton iterations =  3
  Maximum change in master variable =   7.85E-04   at grid pts    1    1    1
 
 Time step #          112
  Time (secs) =  5.600E+01  Delt (secs) = 5.000E-01
  Number of Newton iterations =  3
  Maximum change in master variable =   7.74E-04   at grid pts    1    1    1
 
 Time step #          113
  Time (secs) =  5.650E+01  Delt (secs) = 5.000E-01
  Number of Newton iterations =  3
  Maximum change in master variable =   7.63E-04   at grid pts    1    1    1
 
 Time step #          114
  Time (secs) =  5.700E+01  Delt (secs) = 5.000E-01
  Number of Newton iterations =  3
  Maximum change in master variable =   7.52E-04   at grid pts    1    1    1
 
 Time step #          115
  Time (secs) =  5.750E+01  Delt (secs) = 5.000E-01
  Number of Newton iterations =  3
  Maximum change in master variable =   7.42E-04   at grid pts    1    1    1
 
 Time step #          116
  Time (secs) =  5.800E+01  Delt (secs) = 5.000E-01
  Number of Newton iterations =  3
  Maximum change in master variable =   7.31E-04   at grid pts    1    1    1
 
 Time step #          117
  Time (secs) =  5.850E+01  Delt (secs) = 5.000E-01
  Number of Newton iterations =  3
  Maximum change in master variable =   7.21E-04   at grid pts    1    1    1
 
 Time step #          118
  Time (secs) =  5.900E+01  Delt (secs) = 5.000E-01
  Number of Newton iterations =  3
  Maximum change in master variable =   7.11E-04   at grid pts    1    1    1
 
 Time step #          119
  Time (secs) =  5.950E+01  Delt (secs) = 5.000E-01
  Number of Newton iterations =  3
  Maximum change in master variable =   7.01E-04   at grid pts    1    1    1
 
 Time step #          120
  Time (secs) =  6.000E+01  Delt (secs) = 5.000E-01
  Number of Newton iterations =  3
  Maximum change in master variable =   6.92E-04   at grid pts    1    1    1
 
 Time step #          121
  Time (secs) =  6.050E+01  Delt (secs) = 5.000E-01
  Number of Newton iterations =  3
  Maximum change in master variable =   6.82E-04   at grid pts    1    1    1
 
 Time step #          122
  Time (secs) =  6.100E+01  Delt (secs) = 5.000E-01
  Number of Newton iterations =  3
  Maximum change in master variable =   6.72E-04   at grid pts    1    1    1
 
 Time step #          123
  Time (secs) =  6.150E+01  Delt (secs) = 5.000E-01
  Number of Newton iterations =  3
  Maximum change in master variable =   6.63E-04   at grid pts    1    1    1
 
 Time step #          124
  Time (secs) =  6.200E+01  Delt (secs) = 5.000E-01
  Number of Newton iterations =  3
  Maximum change in master variable =   6.54E-04   at grid pts    1    1    1
 
 Time step #          125
  Time (secs) =  6.250E+01  Delt (secs) = 5.000E-01
  Number of Newton iterations =  3
  Maximum change in master variable =   6.45E-04   at grid pts    1    1    1
 
 Time step #          126
  Time (secs) =  6.300E+01  Delt (secs) = 5.000E-01
  Number of Newton iterations =  3
  Maximum change in master variable =   6.36E-04   at grid pts    1    1    1
 
 Time step #          127
  Time (secs) =  6.350E+01  Delt (secs) = 5.000E-01
  Number of Newton iterations =  3
  Maximum change in master variable =   6.27E-04   at grid pts    1    1    1
 
 Time step #          128
  Time (secs) =  6.400E+01  Delt (secs) = 5.000E-01
  Number of Newton iterations =  3
  Maximum change in master variable =   6.19E-04   at grid pts    1    1    1
 
 Time step #          129
  Time (secs) =  6.450E+01  Delt (secs) = 5.000E-01
  Number of Newton iterations =  3
  Maximum change in master variable =   6.10E-04   at grid pts    1    1    1
 
 Time step #          130
  Time (secs) =  6.500E+01  Delt (secs) = 5.000E-01
  Number of Newton iterations =  3
  Maximum change in master variable =   6.02E-04   at grid pts    1    1    1
 
 Time step #          131
  Time (secs) =  6.550E+01  Delt (secs) = 5.000E-01
  Number of Newton iterations =  3
  Maximum change in master variable =   5.93E-04   at grid pts    1    1    1
 
 Time step #          132
  Time (secs) =  6.600E+01  Delt (secs) = 5.000E-01
  Number of Newton iterations =  3
  Maximum change in master variable =   5.85E-04   at grid pts    1    1    1
 
 Time step #          133
  Time (secs) =  6.650E+01  Delt (secs) = 5.000E-01
  Number of Newton iterations =  3
  Maximum change in master variable =   5.77E-04   at grid pts    1    1    1
 
 Time step #          134
  Time (secs) =  6.700E+01  Delt (secs) = 5.000E-01
  Number of Newton iterations =  3
  Maximum change in master variable =   5.69E-04   at grid pts    1    1    1
 
 Time step #          135
  Time (secs) =  6.750E+01  Delt (secs) = 5.000E-01
  Number of Newton iterations =  3
  Maximum change in master variable =   5.61E-04   at grid pts    1    1    1
 
 Time step #          136
  Time (secs) =  6.800E+01  Delt (secs) = 5.000E-01
  Number of Newton iterations =  3
  Maximum change in master variable =   5.54E-04   at grid pts    1    1    1
 
 Time step #          137
  Time (secs) =  6.850E+01  Delt (secs) = 5.000E-01
  Number of Newton iterations =  3
  Maximum change in master variable =   5.46E-04   at grid pts    1    1    1
 
 Time step #          138
  Time (secs) =  6.900E+01  Delt (secs) = 5.000E-01
  Number of Newton iterations =  3
  Maximum change in master variable =   5.39E-04   at grid pts    1    1    1
 
 Time step #          139
  Time (secs) =  6.950E+01  Delt (secs) = 5.000E-01
  Number of Newton iterations =  3
  Maximum change in master variable =   5.31E-04   at grid pts    1    1    1
 
 Time step #          140