'2 D Savannah River Site Model (reduce the permeability in lower aquifer)
# EOS9 flow input
ROCKS----1----*----2----*----3----*----4----*----5----*----6----*----7----*----8
uutra    2     2106.      0.39   5.0d-12   5.0d-12   5.0d-12  2.00e+00      1000.
                    2.00e+00  0.5000    
    7            0.5     0.5d0     1.0d0     1.0d0     
    7            0.5    0.39d0    5.1d-5     1.0d9     1.0d0 
REFCO       1.013E05     25.0           

START----1----*----2----*----3----*----4----*----5----*----6----*----7----*----8
REACT----1MOPR(20)-2----*----3----*----4----*----5----*----6----*----7----*----8
00020004
PARAM----1----*-123456789012345678901234----*----5----*----6----*----7----*----8
   29999    9999000000000102000471005000   2.14e-5     2.334       0.0
 0.00000E01.8922E+09    1.0d-5  864000.0AA1 1       9.806650     4.0d0       1.0
    1.0E-2       1.0      
           1.013E+05                 4.0

RPCAP----1----*----2----*----3----*----4----*----5----*----6----*----7----*----8
    1           .333       -.1        1.        0.
    1      9.79020E3      .333        1. 
TIMES----1----*----2----*----3----*----4----*----5----*----6----*----7----*----8
  100
0.0000E+000.3154E+080.6307E+080.9461E+080.1261E+090.1577E+090.1892E+090.2208E+09
0.2523E+090.2838E+090.3154E+090.3469E+090.3784E+090.4100E+090.4415E+090.4730E+09
0.5046E+090.5361E+090.5676E+090.5992E+090.6307E+090.6623E+090.6938E+090.7253E+09
0.7569E+090.7884E+090.8199E+090.8515E+090.8830E+090.9145E+090.9461E+090.9776E+09
0.1009E+100.1041E+100.1072E+100.1104E+100.1135E+100.1167E+100.1198E+100.1230E+10
0.1261E+100.1293E+100.1325E+100.1356E+100.1388E+100.1419E+100.1451E+100.1482E+10
0.1514E+100.1545E+100.1577E+100.1608E+100.1640E+100.1671E+100.1703E+100.1734E+10
0.1766E+100.1798E+100.1829E+100.1861E+100.1892E+100.1924E+100.1955E+100.1987E+10
0.2018E+100.2050E+100.2081E+100.2113E+100.2144E+100.2176E+100.2208E+100.2239E+10
0.2271E+100.2302E+100.2334E+100.2365E+100.2397E+100.2428E+100.2460E+100.2491E+10
0.2523E+100.2554E+100.2586E+100.2617E+100.2649E+100.2681E+100.2712E+100.2744E+10
0.2775E+100.2807E+100.2838E+100.2870E+100.2901E+100.2933E+100.2964E+100.2996E+10
0.3027E+100.3059E+100.3091E+100.3122E+100.3154E+100.3185E+100.3217E+100.3248E+10
0.3280E+100.3311E+100.3343E+100.3374E+100.3406E+100.3437E+100.3469E+100.3500E+10
0.3532E+100.3564E+100.3595E+100.3627E+100.3658E+100.3690E+100.3721E+100.3753E+10
0.3784E+100.3816E+100.3847E+100.3879E+100.3910E+100.3942E+100.3974E+100.4005E+10
0.4037E+100.4068E+100.4100E+100.4131E+100.4163E+100.4194E+100.4226E+100.4257E+10
0.4289E+100.4320E+100.4352E+100.4384E+100.4415E+100.4447E+100.4478E+100.4510E+10
0.4541E+100.4573E+100.4604E+100.4636E+100.4667E+100.4699E+100.4730E+100.4762E+10
0.4793E+100.4825E+100.4857E+100.4888E+100.4920E+100.4951E+100.4983E+100.5014E+10
0.5046E+100.5077E+100.5109E+100.5140E+100.5172E+100.5203E+100.5235E+100.5267E+10
0.5298E+100.5330E+100.5361E+100.5393E+100.5424E+100.5456E+100.5487E+100.5519E+10
0.5550E+100.5582E+100.5613E+100.5645E+100.5676E+100.5708E+100.5740E+100.5771E+10
0.5803E+100.5834E+100.5866E+100.5897E+100.5929E+100.5960E+100.5992E+100.6023E+10
0.6055E+100.6086E+100.6118E+100.6150E+100.6181E+100.6213E+100.6244E+100.6276E+10
0.6307E+100.6339E+100.6370E+100.6402E+100.6433E+100.6465E+100.6496E+100.6528E+10
0.6559E+100.6591E+100.6623E+100.6654E+100.6686E+100.6717E+100.6749E+100.6780E+10
0.6812E+100.6843E+100.6875E+100.6906E+100.6938E+100.6969E+100.7001E+100.7033E+10
0.7064E+100.7096E+100.7127E+100.7159E+100.7190E+100.7222E+100.7253E+100.7285E+10
0.7316E+100.7348E+100.7379E+100.7411E+100.7442E+100.7474E+100.7506E+100.7537E+10
0.7569E+100.7600E+100.7632E+100.7663E+100.7695E+100.7726E+100.7758E+100.7789E+10
0.7821E+100.7852E+100.7884E+100.7916E+100.7947E+100.7979E+100.8010E+100.8042E+10
0.8073E+100.8105E+100.8136E+100.8168E+100.8199E+100.8231E+100.8262E+100.8294E+10
0.8326E+100.8357E+100.8389E+100.8420E+100.8452E+100.8483E+100.8515E+100.8546E+10
0.8578E+100.8609E+100.8641E+100.8672E+100.8704E+100.8735E+100.8767E+100.8799E+10
0.8830E+100.8862E+100.8893E+100.8925E+100.8956E+100.8988E+100.9019E+100.9051E+10
0.9082E+100.9114E+100.9145E+100.9177E+100.9209E+100.9240E+100.9272E+100.9303E+10
0.9335E+100.9366E+100.9398E+100.9429E+100.9461E+100.9492E+100.9524E+100.9555E+10
0.9587E+100.9618E+100.9650E+100.9682E+100.9713E+100.9745E+100.9776E+100.9808E+10
0.9839E+100.9871E+100.9902E+100.9934E+100.9965E+100.9997E+100.1003E+110.1006E+11
0.1009E+110.1012E+110.1015E+110.1019E+110.1022E+110.1025E+110.1028E+110.1031E+11
0.1034E+110.1038E+110.1041E+110.1044E+110.1047E+110.1050E+110.1053E+110.1056E+11
0.1060E+110.1063E+110.1066E+110.1069E+110.1072E+110.1075E+110.1079E+110.1082E+11
0.1085E+110.1088E+110.1091E+110.1094E+110.1097E+110.1101E+110.1104E+110.1107E+11
0.1110E+110.1113E+110.1116E+110.1120E+110.1123E+110.1126E+110.1129E+110.1132E+11
0.1135E+110.1138E+110.1142E+110.1145E+110.1148E+110.1151E+110.1154E+110.1157E+11
0.1161E+110.1164E+110.1167E+110.1170E+110.1173E+110.1176E+110.1179E+110.1183E+11
0.1186E+110.1189E+110.1192E+110.1195E+110.1198E+110.1202E+110.1205E+110.1208E+11
0.1211E+110.1214E+110.1217E+110.1220E+110.1224E+110.1227E+110.1230E+110.1233E+11
0.1236E+110.1239E+110.1243E+110.1246E+110.1249E+110.1252E+110.1255E+110.1258E+11   

GENER
A11 1    0                   1     COM1  1.233E-03 0.000     0.000     0
B11 1    0                   1     COM1 -1.233E-03 0.000     0.000     0


INCON
A11 1           0.39000000E+00 0.50000000E-11 0.50000000E-11 0.50000000E-11
 0.1228439639482E+06 0.4000000000000E+01
A11 2           0.39000000E+00 0.50000000E-11 0.50000000E-11 0.50000000E-11
 0.1226237600406E+06 0.4000000000000E+01
A11 3           0.39000000E+00 0.50000000E-11 0.50000000E-11 0.50000000E-11
 0.1224035561111E+06 0.4000000000000E+01
A11 4           0.39000000E+00 0.50000000E-11 0.50000000E-11 0.50000000E-11
 0.1221833521598E+06 0.4000000000000E+01
A11 5           0.39000000E+00 0.50000000E-11 0.50000000E-11 0.50000000E-11
 0.1219631481868E+06 0.4000000000000E+01
A11 6           0.39000000E+00 0.50000000E-11 0.50000000E-11 0.50000000E-11
 0.1217429441918E+06 0.4000000000000E+01
A11 7           0.39000000E+00 0.50000000E-11 0.50000000E-11 0.50000000E-11
 0.1215227401751E+06 0.4000000000000E+01
A11 8           0.39000000E+00 0.50000000E-11 0.50000000E-11 0.50000000E-11
 0.1213025361366E+06 0.4000000000000E+01
A11 9           0.39000000E+00 0.50000000E-11 0.50000000E-11 0.50000000E-11
 0.1210823320762E+06 0.4000000000000E+01
A1110           0.39000000E+00 0.50000000E-11 0.50000000E-11 0.50000000E-11
 0.1208621279940E+06 0.4000000000000E+01
A1111           0.39000000E+00 0.50000000E-11 0.50000000E-11 0.50000000E-11
 0.1206419238900E+06 0.4000000000000E+01
A1112           0.39000000E+00 0.50000000E-11 0.50000000E-11 0.50000000E-11
 0.1204217197642E+06 0.4000000000000E+01
A1113           0.39000000E+00 0.50000000E-11 0.50000000E-11 0.50000000E-11
 0.1202015156165E+06 0.4000000000000E+01
A1114           0.39000000E+00 0.50000000E-11 0.50000000E-11 0.50000000E-11
 0.1199813114471E+06 0.4000000000000E+01
A1115           0.39000000E+00 0.50000000E-11 0.50000000E-11 0.50000000E-11
 0.1197611072558E+06 0.4000000000000E+01
A1116           0.39000000E+00 0.50000000E-11 0.50000000E-11 0.50000000E-11
 0.1195409030427E+06 0.4000000000000E+01
A1117           0.39000000E+00 0.50000000E-11 0.50000000E-11 0.50000000E-11
 0.1193206988078E+06 0.4000000000000E+01
A1118           0.39000000E+00 0.50000000E-11 0.50000000E-11 0.50000000E-11
 0.1191004945511E+06 0.4000000000000E+01
A1119           0.39000000E+00 0.50000000E-11 0.50000000E-11 0.50000000E-11
 0.1188802902725E+06 0.4000000000000E+01
A1120           0.39000000E+00 0.50000000E-11 0.50000000E-11 0.50000000E-11
 0.1186600859721E+06 0.4000000000000E+01
A1121           0.39000000E+00 0.50000000E-11 0.50000000E-11 0.50000000E-11
 0.1184398816499E+06 0.4000000000000E+01
A1122           0.39000000E+00 0.50000000E-11 0.50000000E-11 0.50000000E-11
 0.1182196773059E+06 0.4000000000000E+01
A1123           0.39000000E+00 0.50000000E-11 0.50000000E-11 0.50000000E-11
 0.1179994729401E+06 0.4000000000000E+01
A1124           0.39000000E+00 0.50000000E-11 0.50000000E-11 0.50000000E-11
 0.1177792685525E+06 0.4000000000000E+01
A1125           0.39000000E+00 0.50000000E-11 0.50000000E-11 0.50000000E-11
 0.1175590641430E+06 0.4000000000000E+01
A1126           0.39000000E+00 0.50000000E-11 0.50000000E-11 0.50000000E-11
 0.1173388597117E+06 0.4000000000000E+01
A1127           0.39000000E+00 0.50000000E-11 0.50000000E-11 0.50000000E-11
 0.1171186552586E+06 0.4000000000000E+01
A1128           0.39000000E+00 0.50000000E-11 0.50000000E-11 0.50000000E-11
 0.1168984507837E+06 0.4000000000000E+01
A1129           0.39000000E+00 0.50000000E-11 0.50000000E-11 0.50000000E-11
 0.1166782462869E+06 0.4000000000000E+01
A1130           0.39000000E+00 0.50000000E-11 0.50000000E-11 0.50000000E-11
 0.1164580417684E+06 0.4000000000000E+01
A1131           0.39000000E+00 0.50000000E-11 0.50000000E-11 0.50000000E-11
 0.1162378372280E+06 0.4000000000000E+01
A1132           0.39000000E+00 0.50000000E-11 0.50000000E-11 0.50000000E-11
 0.1160176326658E+06 0.4000000000000E+01
A1133           0.39000000E+00 0.50000000E-11 0.50000000E-11 0.50000000E-11
 0.1157974280818E+06 0.4000000000000E+01
A1134           0.39000000E+00 0.50000000E-11 0.50000000E-11 0.50000000E-11
 0.1155772234760E+06 0.4000000000000E+01
A1135           0.39000000E+00 0.50000000E-11 0.50000000E-11 0.50000000E-11
 0.1153570188483E+06 0.4000000000000E+01
A1136           0.39000000E+00 0.50000000E-11 0.50000000E-11 0.50000000E-11
 0.1151368141988E+06 0.4000000000000E+01
A1137           0.39000000E+00 0.50000000E-11 0.50000000E-11 0.50000000E-11
 0.1149166095275E+06 0.4000000000000E+01
A1138           0.39000000E+00 0.50000000E-11 0.50000000E-11 0.50000000E-11
 0.1146964048344E+06 0.4000000000000E+01
A1139           0.39000000E+00 0.50000000E-11 0.50000000E-11 0.50000000E-11
 0.1144762001195E+06 0.4000000000000E+01
A1140           0.39000000E+00 0.50000000E-11 0.50000000E-11 0.50000000E-11
 0.1142559953828E+06 0.4000000000000E+01
A1141           0.39000000E+00 0.50000000E-11 0.50000000E-11 0.50000000E-11
 0.1140357906242E+06 0.4000000000000E+01
A1142           0.39000000E+00 0.50000000E-11 0.50000000E-11 0.50000000E-11
 0.1138155858438E+06 0.4000000000000E+01
A1143           0.39000000E+00 0.50000000E-11 0.50000000E-11 0.50000000E-11
 0.1135953810416E+06 0.4000000000000E+01
A1144           0.39000000E+00 0.50000000E-11 0.50000000E-11 0.50000000E-11
 0.1133751762176E+06 0.4000000000000E+01
A1145           0.39000000E+00 0.50000000E-11 0.50000000E-11 0.50000000E-11
 0.1131549713717E+06 0.4000000000000E+01
A1146           0.39000000E+00 0.50000000E-11 0.50000000E-11 0.50000000E-11
 0.1129347665041E+06 0.4000000000000E+01
A1147           0.39000000E+00 0.50000000E-11 0.50000000E-11 0.50000000E-11
 0.1127145616146E+06 0.4000000000000E+01
A1148           0.39000000E+00 0.50000000E-11 0.50000000E-11 0.50000000E-11
 0.1124943567033E+06 0.4000000000000E+01
A1149           0.39000000E+00 0.50000000E-11 0.50000000E-11 0.50000000E-11
 0.1122741517702E+06 0.4000000000000E+01
A1150           0.39000000E+00 0.50000000E-11 0.50000000E-11 0.50000000E-11
 0.1120539468153E+06 0.4000000000000E+01
A1151           0.39000000E+00 0.50000000E-11 0.50000000E-11 0.50000000E-11
 0.1118337418385E+06 0.4000000000000E+01
A1152           0.39000000E+00 0.50000000E-11 0.50000000E-11 0.50000000E-11
 0.1116135368399E+06 0.4000000000000E+01
A1153           0.39000000E+00 0.50000000E-11 0.50000000E-11 0.50000000E-11
 0.1113933318195E+06 0.4000000000000E+01
A1154           0.39000000E+00 0.50000000E-11 0.50000000E-11 0.50000000E-11
 0.1111731267773E+06 0.4000000000000E+01
A1155           0.39000000E+00 0.50000000E-11 0.50000000E-11 0.50000000E-11
 0.1109529217133E+06 0.4000000000000E+01
A1156           0.39000000E+00 0.50000000E-11 0.50000000E-11 0.50000000E-11
 0.1107327166274E+06 0.4000000000000E+01
A1157           0.39000000E+00 0.50000000E-11 0.50000000E-11 0.50000000E-11
 0.1105125115198E+06 0.4000000000000E+01
A1158           0.39000000E+00 0.50000000E-11 0.50000000E-11 0.50000000E-11
 0.1102923063903E+06 0.4000000000000E+01
A1159           0.39000000E+00 0.50000000E-11 0.50000000E-11 0.50000000E-11
 0.1100721012390E+06 0.4000000000000E+01
A1160           0.39000000E+00 0.50000000E-11 0.50000000E-11 0.50000000E-11
 0.1098518960659E+06 0.4000000000000E+01
A1161           0.39000000E+00 0.50000000E-11 0.50000000E-11 0.50000000E-11
 0.1096316908709E+06 0.4000000000000E+01
A1162           0.39000000E+00 0.50000000E-11 0.50000000E-11 0.50000000E-11
 0.1094114856542E+06 0.4000000000000E+01
A1163           0.39000000E+00 0.50000000E-11 0.50000000E-11 0.50000000E-11
 0.1091912804156E+06 0.4000000000000E+01
A1164           0.39000000E+00 0.50000000E-11 0.50000000E-11 0.50000000E-11
 0.1089710751552E+06 0.4000000000000E+01
A1165           0.39000000E+00 0.50000000E-11 0.50000000E-11 0.50000000E-11
 0.1087508698729E+06 0.4000000000000E+01
A1166           0.39000000E+00 0.50000000E-11 0.50000000E-11 0.50000000E-11
 0.1085306645689E+06 0.4000000000000E+01
A1167           0.39000000E+00 0.50000000E-11 0.50000000E-11 0.50000000E-11
 0.1083104592431E+06 0.4000000000000E+01
A1168           0.39000000E+00 0.50000000E-11 0.50000000E-11 0.50000000E-11
 0.1080902538954E+06 0.4000000000000E+01
A1169           0.39000000E+00 0.50000000E-11 0.50000000E-11 0.50000000E-11
 0.1078700485259E+06 0.4000000000000E+01
A1170           0.39000000E+00 0.50000000E-11 0.50000000E-11 0.50000000E-11
 0.1076498431346E+06 0.4000000000000E+01
A1171           0.39000000E+00 0.50000000E-11 0.50000000E-11 0.50000000E-11
 0.1074296377214E+06 0.4000000000000E+01
A1172           0.39000000E+00 0.50000000E-11 0.50000000E-11 0.50000000E-11
 0.1072094322865E+06 0.4000000000000E+01
A1173           0.39000000E+00 0.50000000E-11 0.50000000E-11 0.50000000E-11
 0.1069892268297E+06 0.4000000000000E+01
A1174           0.39000000E+00 0.50000000E-11 0.50000000E-11 0.50000000E-11
 0.1067690213511E+06 0.4000000000000E+01
A1175           0.39000000E+00 0.50000000E-11 0.50000000E-11 0.50000000E-11
 0.1065488158507E+06 0.4000000000000E+01
A1176           0.39000000E+00 0.50000000E-11 0.50000000E-11 0.50000000E-11
 0.1063286103285E+06 0.4000000000000E+01
A1177           0.39000000E+00 0.50000000E-11 0.50000000E-11 0.50000000E-11
 0.1061084047844E+06 0.4000000000000E+01
A1178           0.39000000E+00 0.50000000E-11 0.50000000E-11 0.50000000E-11
 0.1058881992186E+06 0.4000000000000E+01
A1179           0.39000000E+00 0.50000000E-11 0.50000000E-11 0.50000000E-11
 0.1056679936309E+06 0.4000000000000E+01
A1180           0.39000000E+00 0.50000000E-11 0.50000000E-11 0.50000000E-11
 0.1054477880214E+06 0.4000000000000E+01
A1181           0.39000000E+00 0.50000000E-11 0.50000000E-11 0.50000000E-11
 0.1052275823901E+06 0.4000000000000E+01
A1182           0.39000000E+00 0.50000000E-11 0.50000000E-11 0.50000000E-11
 0.1050073767369E+06 0.4000000000000E+01
A1183           0.39000000E+00 0.50000000E-11 0.50000000E-11 0.50000000E-11
 0.1047871710620E+06 0.4000000000000E+01
A1184           0.39000000E+00 0.50000000E-11 0.50000000E-11 0.50000000E-11
 0.1045669653652E+06 0.4000000000000E+01
A1185           0.39000000E+00 0.50000000E-11 0.50000000E-11 0.50000000E-11
 0.1043467596466E+06 0.4000000000000E+01
A1186           0.39000000E+00 0.50000000E-11 0.50000000E-11 0.50000000E-11
 0.1041265539062E+06 0.4000000000000E+01
A1187           0.39000000E+00 0.50000000E-11 0.50000000E-11 0.50000000E-11
 0.1039063481439E+06 0.4000000000000E+01
A1188           0.39000000E+00 0.50000000E-11 0.50000000E-11 0.50000000E-11
 0.1036861423599E+06 0.4000000000000E+01
A1189           0.39000000E+00 0.50000000E-11 0.50000000E-11 0.50000000E-11
 0.1034659365540E+06 0.4000000000000E+01
A1190           0.39000000E+00 0.50000000E-11 0.50000000E-11 0.50000000E-11
 0.1032457307263E+06 0.4000000000000E+01
A1191           0.39000000E+00 0.50000000E-11 0.50000000E-11 0.50000000E-11
 0.1030255248768E+06 0.4000000000000E+01
A1192           0.39000000E+00 0.50000000E-11 0.50000000E-11 0.50000000E-11
 0.1028053190055E+06 0.4000000000000E+01
A1193           0.39000000E+00 0.50000000E-11 0.50000000E-11 0.50000000E-11
 0.1025851131123E+06 0.4000000000000E+01
A1194           0.39000000E+00 0.50000000E-11 0.50000000E-11 0.50000000E-11
 0.1023649071973E+06 0.4000000000000E+01
A1195           0.39000000E+00 0.50000000E-11 0.50000000E-11 0.50000000E-11
 0.1021447012606E+06 0.4000000000000E+01
A1196           0.39000000E+00 0.50000000E-11 0.50000000E-11 0.50000000E-11
 0.1019244953019E+06 0.4000000000000E+01
A1197           0.39000000E+00 0.50000000E-11 0.50000000E-11 0.50000000E-11
 0.1017042893215E+06 0.4000000000000E+01
A1198           0.39000000E+00 0.50000000E-11 0.50000000E-11 0.50000000E-11
 0.1014840833193E+06 0.4000000000000E+01
A1199           0.39000000E+00 0.50000000E-11 0.50000000E-11 0.50000000E-11
 0.9998988503898E+00 0.4000000000000E+01
B11 1           0.39000000E+00 0.50000000E-11 0.50000000E-11 0.50000000E-11
 0.9996177298375E+00 0.4000000000000E+01
 
ENDCY

     
