
  Title of simulation: calcite.in:  kinetic calcite dissolution problem for geochemistry code v


  --> Running in GIMRT mode (global implicit reaction and transport) 

  Extended Debye-Huckel activity model

   ---> Using database: calcite.dbs                                                                                         
  Temperature parameters not found
  Using defaults

  Number of components:                          3

  Number of secondary species:                   6

  Number of kinetic minerals:                    1

  No surface complexation block found

     --> Calling database subroutine


  Number of reactions:                              7
  Number of complexes:                              6
  Number of minerals:                               1
  Number of gases:                                  0

     --> Finished reading database
  No ion exchange block found
  Fixing porosity at 0.5000
  No update of porosity

  Current density module: temperature


  ---> READING GEOCHEMICAL CONDITIONS  


  ---> STARTING SPECIATION OF GEOCHEMICAL CONDITIONS  


                SPECIATION OF 
      INITIAL AND BOUNDARY CONDITIONS 
           SUCCESSFULLY COMPLETED

  No aqueous kinetics block found
  Retardation parameters not found
  Assuming NO retardation (Kd = 0) 
  No discretization in Z direction
  Setting nz = 1


   NZ =            1


  Number of heterogeneities =            1


  No boundary conditions found


  Cannot interpret string in boundary read
 initial_condition                                                                                                                   
  Ignoring this line

  Output block found

  Timestepping on--output files written
   1.0000000000000000     


 Parameters for this run:

 --> Porosity set by "fix_porosity" or "set_porosity" keywords
 ----> No update of porosity
 --> Extended Debye-Huckel activity model used
 --> Activity coefficients only computed
     at beginning of time step 

   Running in batch mode

  Reading MODFLOW block
  Reading flow block

  No flow block found
  Assuming Darcy fluxes = 0


   Constant velocities have been specified

   X Darcy velocity =    0.0000000000000000     
   Y Darcy velocity =    0.0000000000000000     
   Z Darcy velocity =    0.0000000000000000     


   Constant gas velocities have been specified

   X gas flux  =    0.0000000000000000     
   Y gas flux  =    0.0000000000000000     
   Z gas flux  =    0.0000000000000000     




  No transport block found
  Assuming dispersivity and diffusion = 0


   Using constant diffusion coefficient
  Diffusion coefficient (m**2/yr) =       0.0000E+00


  Longitudinal dispersivity (m) =     0.0000E+00
  Transverse dispersivity (m) =       0.0000E+00


         INITIALIZATION COMPLETED 
          STARTING TIMESTEPPING 


  ---> RUNNING IN:  GLOBAL IMPLICIT REACTION AND TRANSPORT (GIMRT) MODE


  Grid cells in X direction (NX):            1
  Grid cells in Y direction (NY):            1
  Grid cells in Z direction (NZ):            1


  Initial mass in system =   1.98091188111625821E-003
 Time step #            1
  Time (hrs) =  8.760E-07  Delt (hrs) = 8.760E-07
  Number of Newton iterations =  1
  Maximum change in master variable =   1.21E-10   at grid pts    1    1    1

 Time step #            2
  Time (hrs) =  1.752E-06  Delt (hrs) = 8.760E-07
  Number of Newton iterations =  1
  Maximum change in master variable =   1.18E-10   at grid pts    1    1    1

 Time step #            3
  Time (hrs) =  2.628E-06  Delt (hrs) = 8.760E-07
  Number of Newton iterations =  1
  Maximum change in master variable =   1.18E-10   at grid pts    1    1    1

 Time step #            4
  Time (hrs) =  3.504E-06  Delt (hrs) = 8.760E-07
  Number of Newton iterations =  1
  Maximum change in master variable =   1.18E-10   at grid pts    1    1    1

 Time step #            5
  Time (hrs) =  4.380E-06  Delt (hrs) = 8.760E-07
  Number of Newton iterations =  1
  Maximum change in master variable =   1.18E-10   at grid pts    1    1    1

 Time step #            6
  Time (hrs) =  6.132E-06  Delt (hrs) = 1.752E-06
  Number of Newton iterations =  1
  Maximum change in master variable =   2.38E-10   at grid pts    1    1    1

 Time step #            7
  Time (hrs) =  9.636E-06  Delt (hrs) = 3.504E-06
  Number of Newton iterations =  1
  Maximum change in master variable =   4.76E-10   at grid pts    1    1    1

 Time step #            8
  Time (hrs) =  1.664E-05  Delt (hrs) = 7.008E-06
  Number of Newton iterations =  1
  Maximum change in master variable =   9.53E-10   at grid pts    1    1    1

 Time step #            9
  Time (hrs) =  3.066E-05  Delt (hrs) = 1.402E-05
  Number of Newton iterations =  1
  Maximum change in master variable =   1.91E-09   at grid pts    1    1    1

 Time step #           10
  Time (hrs) =  5.869E-05  Delt (hrs) = 2.803E-05
  Number of Newton iterations =  1
  Maximum change in master variable =   3.81E-09   at grid pts    1    1    1

 Time step #           11
  Time (hrs) =  1.148E-04  Delt (hrs) = 5.606E-05
  Number of Newton iterations =  1
  Maximum change in master variable =   7.62E-09   at grid pts    1    1    1

 Time step #           12
  Time (hrs) =  2.269E-04  Delt (hrs) = 1.121E-04
  Number of Newton iterations =  1
  Maximum change in master variable =   1.52E-08   at grid pts    1    1    1

 Time step #           13
  Time (hrs) =  4.511E-04  Delt (hrs) = 2.243E-04
  Number of Newton iterations =  2
  Maximum change in master variable =   3.05E-08   at grid pts    1    1    1

 Time step #           14
  Time (hrs) =  8.997E-04  Delt (hrs) = 4.485E-04
  Number of Newton iterations =  2
  Maximum change in master variable =   6.10E-08   at grid pts    1    1    1

 Time step #           15
  Time (hrs) =  1.797E-03  Delt (hrs) = 8.970E-04
  Number of Newton iterations =  2
  Maximum change in master variable =   1.22E-07   at grid pts    1    1    1

 Time step #           16
  Time (hrs) =  3.591E-03  Delt (hrs) = 1.794E-03
  Number of Newton iterations =  2
  Maximum change in master variable =   2.44E-07   at grid pts    1    1    1

 Time step #           17
  Time (hrs) =  7.179E-03  Delt (hrs) = 3.588E-03
  Number of Newton iterations =  2
  Maximum change in master variable =   4.88E-07   at grid pts    1    1    1

 Time step #           18
  Time (hrs) =  1.436E-02  Delt (hrs) = 7.176E-03
  Number of Newton iterations =  2
  Maximum change in master variable =   9.76E-07   at grid pts    1    1    1

 Time step #           19
  Time (hrs) =  2.871E-02  Delt (hrs) = 1.435E-02
  Number of Newton iterations =  2
  Maximum change in master variable =   1.95E-06   at grid pts    1    1    1

 Time step #           20
  Time (hrs) =  5.741E-02  Delt (hrs) = 2.870E-02
  Number of Newton iterations =  2
  Maximum change in master variable =   3.90E-06   at grid pts    1    1    1

 Time step #           21
  Time (hrs) =  1.148E-01  Delt (hrs) = 5.741E-02
  Number of Newton iterations =  2
  Maximum change in master variable =   7.80E-06   at grid pts    1    1    1

 Time step #           22
  Time (hrs) =  2.296E-01  Delt (hrs) = 1.148E-01
  Number of Newton iterations =  2
  Maximum change in master variable =   1.56E-05   at grid pts    1    1    1

 Time step #           23
  Time (hrs) =  4.593E-01  Delt (hrs) = 2.296E-01
  Number of Newton iterations =  2
  Maximum change in master variable =   3.12E-05   at grid pts    1    1    1

 Time step #           24
  Time (hrs) =  9.186E-01  Delt (hrs) = 4.593E-01
  Number of Newton iterations =  2
  Maximum change in master variable =   6.24E-05   at grid pts    1    1    1

  Adjusting time step to match output file
  ---> New time step = 8.1445E-02

 Time step #           25
  Time (hrs) =  1.000E+00  Delt (hrs) = 8.144E-02
  Number of Newton iterations =  2
  Maximum change in master variable =   9.61E-06   at grid pts    1    1    1


   WRITING OUTPUT FILES
  Time (hrs) =  1.000E+00
   File number  =            1


  Total Newton iterations =           38

   *** RUN SUCCESSFULLY COMPLETED *** 



 ====== Running time on this computer ======

     hr:   0    min:   0    sec:   0

